edisgo/opf/edisgo_scenario_data/1056/topology/generators.csv
,bus,p_nom,type,control,weather_cell_id,subtype,voltage_level,id,subst_id,la_id,geom,mvlv_subst_id,geom_em,p
Generator_mvgd_1056_solar_ground_mounted_750114,Bus_mvgd_1056_gen_750114,1.017,solar,PQ,1131085.0,solar_ground_mounted,mv,750114.0,,,,,,
Generator_mvgd_1056_solar_ground_mounted_750128,Bus_mvgd_1056_gen_750128,1.39529,solar,PQ,1131085.0,solar_ground_mounted,mv,750128.0,,,,,,
Generator_mvgd_1056_solar_ground_mounted_750129,Bus_mvgd_1056_gen_750129,4.861,solar,PQ,1130085.0,solar_ground_mounted,mv,750129.0,,,,,,
Generator_mvgd_1056_solar_ground_mounted_750200,Bus_mvgd_1056_gen_750200,7.09051,solar,PQ,1131085.0,solar_ground_mounted,mv,750200.0,,,,,,
Generator_mvgd_1056_solar_ground_mounted_750284,Bus_mvgd_1056_gen_750284,2.4998400000000003,solar,PQ,1130085.0,solar_ground_mounted,mv,750284.0,,,,,,
Generator_mvgd_1056_solar_roof_mounted_750296,Bus_mvgd_1056_gen_752430,0.341445,solar,PQ,1131085.0,solar_roof_mounted,mv,750296.0,,,,,,
Generator_mvgd_1056_solar_ground_mounted_752198,Bus_mvgd_1056_gen_752198,1.7577,solar,PQ,1130085.0,solar_ground_mounted,mv,752198.0,,,,,,
Generator_mvgd_1056_biogas_752430,Bus_mvgd_1056_gen_752430,1.9869778986194264,biomass,PQ,,biogas,mv,752430.0,,,,,,
Generator_mvgd_1056_solar_ground_mounted_752492,Bus_mvgd_1056_gen_752492,12.585,solar,PQ,1131085.0,solar_ground_mounted,mv,752492.0,,,,,,
Generator_mvgd_1056_wind_onshore_752950,Bus_mvgd_1056_gen_750114,1.5,wind,PQ,1131085.0,wind_onshore,mv,752950.0,,,,,,
Generator_mvgd_1056_wind_onshore_752952,Bus_mvgd_1056_gen_750128,1.5,wind,PQ,1131085.0,wind_onshore,mv,752952.0,,,,,,
Generator_mvgd_1056_lvgd_97101_solar_roof_mounted_749943,BranchTee_mvgd_1056_lvgd_97101_48,0.01355,solar,PQ,1130085.0,solar_roof_mounted,lv,749943.0,,,,,,
Generator_mvgd_1056_lvgd_97101_solar_roof_mounted_750013,BusBar_mvgd_1056_lvgd_97101_LV,0.0504,solar,PQ,1130085.0,solar_roof_mounted,lv,750013.0,,,,,,
Generator_mvgd_1056_lvgd_97101_solar_roof_mounted_750017,BranchTee_mvgd_1056_lvgd_97101_12,0.0252,solar,PQ,1130085.0,solar_roof_mounted,lv,750017.0,,,,,,
Generator_mvgd_1056_lvgd_97101_solar_roof_mounted_750056,BranchTee_mvgd_1056_lvgd_97101_34,0.0047599999999999,solar,PQ,1130085.0,solar_roof_mounted,lv,750056.0,,,,,,
Generator_mvgd_1056_lvgd_97101_solar_roof_mounted_750261,BranchTee_mvgd_1056_lvgd_97101_22,0.00784,solar,PQ,1130085.0,solar_roof_mounted,lv,750261.0,,,,,,
Generator_mvgd_1056_lvgd_97101_solar_roof_mounted_752141,BranchTee_mvgd_1056_lvgd_97101_20,0.003,solar,PQ,1130085.0,solar_roof_mounted,lv,752141.0,,,,,,
Generator_mvgd_1056_lvgd_97101_solar_roof_mounted_752481,BranchTee_mvgd_1056_lvgd_97101_14,0.01311,solar,PQ,1130085.0,solar_roof_mounted,lv,752481.0,,,,,,
Generator_mvgd_1056_lvgd_97101_solar_roof_mounted_752953,BranchTee_mvgd_1056_lvgd_97101_30,0.0011,solar,PQ,1130085.0,solar_roof_mounted,lv,752953.0,,,,,,
Generator_mvgd_1056_lvgd_97101_solar_roof_mounted_752983,BranchTee_mvgd_1056_lvgd_97101_18,0.0168299999999999,solar,PQ,1130085.0,solar_roof_mounted,lv,752983.0,,,,,,
Generator_mvgd_1056_lvgd_97101_solar_roof_mounted_753003,BranchTee_mvgd_1056_lvgd_97101_44,0.01197,solar,PQ,1130085.0,solar_roof_mounted,lv,753003.0,,,,,,
Generator_mvgd_1056_lvgd_97101_solar_roof_mounted_753035,BranchTee_mvgd_1056_lvgd_97101_38,0.017,solar,PQ,1130085.0,solar_roof_mounted,lv,753035.0,,,,,,
Generator_mvgd_1056_lvgd_440123_solar_roof_mounted_749982,BranchTee_mvgd_1056_lvgd_440123_6,0.01701,solar,PQ,1131085.0,solar_roof_mounted,lv,749982.0,,,,,,
Generator_mvgd_1056_lvgd_440123_solar_roof_mounted_750123,BranchTee_mvgd_1056_lvgd_440123_4,0.01077,solar,PQ,1131085.0,solar_roof_mounted,lv,750123.0,,,,,,
Generator_mvgd_1056_lvgd_440123_solar_roof_mounted_752160,BranchTee_mvgd_1056_lvgd_440123_2,0.0205,solar,PQ,1131085.0,solar_roof_mounted,lv,752160.0,,,,,,
Generator_mvgd_1056_lvgd_440123_solar_roof_mounted_752250,BusBar_mvgd_1056_lvgd_440123_LV,0.04998,solar,PQ,1131085.0,solar_roof_mounted,lv,752250.0,,,,,,
Generator_mvgd_1056_lvgd_440123_solar_roof_mounted_752506,BranchTee_mvgd_1056_lvgd_440123_2,0.00705,solar,PQ,1131085.0,solar_roof_mounted,lv,752506.0,,,,,,
Generator_mvgd_1056_lvgd_97195_solar_roof_mounted_753001,BranchTee_mvgd_1056_lvgd_97195_10,0.0207,solar,PQ,1131085.0,solar_roof_mounted,lv,753001.0,,,,,,
Generator_mvgd_1056_lvgd_97195_solar_roof_mounted_753056,BranchTee_mvgd_1056_lvgd_97195_24,0.01425,solar,PQ,1131085.0,solar_roof_mounted,lv,753056.0,,,,,,
Generator_mvgd_1056_lvgd_97221_solar_roof_mounted_749972,BranchTee_mvgd_1056_lvgd_97221_12,0.0275,solar,PQ,1131085.0,solar_roof_mounted,lv,749972.0,,,,,,
Generator_mvgd_1056_lvgd_97221_solar_roof_mounted_749980,BranchTee_mvgd_1056_lvgd_97221_32,0.02142,solar,PQ,1131085.0,solar_roof_mounted,lv,749980.0,,,,,,
Generator_mvgd_1056_lvgd_97221_solar_roof_mounted_750104,BranchTee_mvgd_1056_lvgd_97221_14,0.02812,solar,PQ,1131085.0,solar_roof_mounted,lv,750104.0,,,,,,
Generator_mvgd_1056_lvgd_97221_solar_roof_mounted_750153,BranchTee_mvgd_1056_lvgd_97221_22,0.0025499999999999,solar,PQ,1131085.0,solar_roof_mounted,lv,750153.0,,,,,,
Generator_mvgd_1056_lvgd_97221_solar_roof_mounted_750253,Bus_mvgd_1056_lvgd_97221_gen_750253,0.17628,solar,PQ,1131085.0,solar_roof_mounted,lv,750253.0,,,,,,
Generator_mvgd_1056_lvgd_97221_solar_roof_mounted_752974,BranchTee_mvgd_1056_lvgd_97221_2,0.00765,solar,PQ,1131085.0,solar_roof_mounted,lv,752974.0,,,,,,
Generator_mvgd_1056_lvgd_97239_solar_roof_mounted_750117,BranchTee_mvgd_1056_lvgd_97239_50,0.0126,solar,PQ,1131085.0,solar_roof_mounted,lv,750117.0,,,,,,
Generator_mvgd_1056_lvgd_97239_solar_roof_mounted_752207,BranchTee_mvgd_1056_lvgd_97239_10,0.00954,solar,PQ,1131085.0,solar_roof_mounted,lv,752207.0,,,,,,
Generator_mvgd_1056_lvgd_97239_solar_roof_mounted_752513,BranchTee_mvgd_1056_lvgd_97239_34,0.015,solar,PQ,1131085.0,solar_roof_mounted,lv,752513.0,,,,,,
Generator_mvgd_1056_lvgd_97253_solar_roof_mounted_750052,BranchTee_mvgd_1056_lvgd_97253_14,0.01116,solar,PQ,1131085.0,solar_roof_mounted,lv,750052.0,,,,,,
Generator_mvgd_1056_lvgd_97253_solar_roof_mounted_750067,BranchTee_mvgd_1056_lvgd_97253_2,0.02588,solar,PQ,1131085.0,solar_roof_mounted,lv,750067.0,,,,,,
Generator_mvgd_1056_lvgd_97253_solar_roof_mounted_750071,BranchTee_mvgd_1056_lvgd_97253_10,0.00897,solar,PQ,1131085.0,solar_roof_mounted,lv,750071.0,,,,,,
Generator_mvgd_1056_lvgd_97253_solar_roof_mounted_750172,BranchTee_mvgd_1056_lvgd_97253_12,0.009,solar,PQ,1131085.0,solar_roof_mounted,lv,750172.0,,,,,,
Generator_mvgd_1056_lvgd_97253_solar_roof_mounted_752962,BranchTee_mvgd_1056_lvgd_97253_6,0.00774,solar,PQ,1131085.0,solar_roof_mounted,lv,752962.0,,,,,,
Generator_mvgd_1056_lvgd_97254_solar_roof_mounted_750040,BranchTee_mvgd_1056_lvgd_97254_2,0.01368,solar,PQ,1130085.0,solar_roof_mounted,lv,750040.0,,,,,,
Generator_mvgd_1056_lvgd_97254_solar_roof_mounted_752144,BranchTee_mvgd_1056_lvgd_97254_34,0.00385,solar,PQ,1130085.0,solar_roof_mounted,lv,752144.0,,,,,,
Generator_mvgd_1056_lvgd_97254_solar_roof_mounted_752485,BranchTee_mvgd_1056_lvgd_97254_46,0.0277,solar,PQ,1130085.0,solar_roof_mounted,lv,752485.0,,,,,,
Generator_mvgd_1056_lvgd_97254_solar_roof_mounted_1582178,BranchTee_mvgd_1056_lvgd_97254_14,0.0039,solar,PQ,1130085.0,solar_roof_mounted,lv,1582178.0,,,,,,
Generator_mvgd_1056_lvgd_97254_solar_roof_mounted_1594047,BranchTee_mvgd_1056_lvgd_97254_30,0.0078,solar,PQ,1130085.0,solar_roof_mounted,lv,1594047.0,,,,,,
Generator_mvgd_1056_lvgd_97255_solar_roof_mounted_749953,BranchTee_mvgd_1056_lvgd_97255_46,0.021275,solar,PQ,1130085.0,solar_roof_mounted,lv,749953.0,,,,,,
Generator_mvgd_1056_lvgd_97255_solar_roof_mounted_749995,BranchTee_mvgd_1056_lvgd_97255_40,0.00816,solar,PQ,1130085.0,solar_roof_mounted,lv,749995.0,,,,,,
Generator_mvgd_1056_lvgd_97255_solar_roof_mounted_750035,BranchTee_mvgd_1056_lvgd_97255_2,0.0414,solar,PQ,1130085.0,solar_roof_mounted,lv,750035.0,,,,,,
Generator_mvgd_1056_lvgd_97255_solar_roof_mounted_750176,BranchTee_mvgd_1056_lvgd_97255_30,0.00575,solar,PQ,1130085.0,solar_roof_mounted,lv,750176.0,,,,,,
Generator_mvgd_1056_lvgd_97255_solar_roof_mounted_750212,BranchTee_mvgd_1056_lvgd_97255_20,0.0048,solar,PQ,1130085.0,solar_roof_mounted,lv,750212.0,,,,,,
Generator_mvgd_1056_lvgd_97255_solar_roof_mounted_750233,BranchTee_mvgd_1056_lvgd_97255_74,0.0050999999999999,solar,PQ,1130085.0,solar_roof_mounted,lv,750233.0,,,,,,
Generator_mvgd_1056_lvgd_97255_solar_roof_mounted_750238,BranchTee_mvgd_1056_lvgd_97255_44,0.02352,solar,PQ,1130085.0,solar_roof_mounted,lv,750238.0,,,,,,
Generator_mvgd_1056_lvgd_97255_solar_roof_mounted_750258,BranchTee_mvgd_1056_lvgd_97255_6,0.007975,solar,PQ,1130085.0,solar_roof_mounted,lv,750258.0,,,,,,
Generator_mvgd_1056_lvgd_97255_solar_roof_mounted_750264,BranchTee_mvgd_1056_lvgd_97255_42,0.0088,solar,PQ,1130085.0,solar_roof_mounted,lv,750264.0,,,,,,
Generator_mvgd_1056_lvgd_97255_solar_roof_mounted_752432,BranchTee_mvgd_1056_lvgd_97255_10,0.01563,solar,PQ,1130085.0,solar_roof_mounted,lv,752432.0,,,,,,
Generator_mvgd_1056_lvgd_97255_solar_roof_mounted_752471,BranchTee_mvgd_1056_lvgd_97255_14,0.01332,solar,PQ,1130085.0,solar_roof_mounted,lv,752471.0,,,,,,
Generator_mvgd_1056_lvgd_97255_solar_roof_mounted_752479,Bus_mvgd_1056_lvgd_97255_gen_752479,0.27605,solar,PQ,1130085.0,solar_roof_mounted,lv,752479.0,,,,,,
Generator_mvgd_1056_lvgd_97255_solar_roof_mounted_753032,BranchTee_mvgd_1056_lvgd_97255_24,0.00552,solar,PQ,1130085.0,solar_roof_mounted,lv,753032.0,,,,,,
Generator_mvgd_1056_lvgd_97290_solar_roof_mounted_750043,BranchTee_mvgd_1056_lvgd_97290_14,0.01078,solar,PQ,1130085.0,solar_roof_mounted,lv,750043.0,,,,,,
Generator_mvgd_1056_lvgd_97290_solar_roof_mounted_750299,BranchTee_mvgd_1056_lvgd_97290_30,0.0209,solar,PQ,1130085.0,solar_roof_mounted,lv,750299.0,,,,,,
Generator_mvgd_1056_lvgd_97290_solar_roof_mounted_750307,BranchTee_mvgd_1056_lvgd_97290_2,0.0099,solar,PQ,1130085.0,solar_roof_mounted,lv,750307.0,,,,,,
Generator_mvgd_1056_lvgd_97290_solar_roof_mounted_750310,BranchTee_mvgd_1056_lvgd_97290_34,0.0099,solar,PQ,1130085.0,solar_roof_mounted,lv,750310.0,,,,,,
Generator_mvgd_1056_lvgd_97290_solar_roof_mounted_750315,BranchTee_mvgd_1056_lvgd_97290_46,0.00594,solar,PQ,1130085.0,solar_roof_mounted,lv,750315.0,,,,,,
Generator_mvgd_1056_lvgd_97290_solar_roof_mounted_752199,BranchTee_mvgd_1056_lvgd_97290_52,0.0108,solar,PQ,1130085.0,solar_roof_mounted,lv,752199.0,,,,,,
Generator_mvgd_1056_lvgd_97290_solar_roof_mounted_752452,BranchTee_mvgd_1056_lvgd_97290_22,0.00648,solar,PQ,1130085.0,solar_roof_mounted,lv,752452.0,,,,,,
Generator_mvgd_1056_lvgd_97290_solar_roof_mounted_752474,BranchTee_mvgd_1056_lvgd_97290_44,0.01008,solar,PQ,1130085.0,solar_roof_mounted,lv,752474.0,,,,,,
Generator_mvgd_1056_lvgd_97290_solar_roof_mounted_752973,BranchTee_mvgd_1056_lvgd_97290_56,0.00408,solar,PQ,1130085.0,solar_roof_mounted,lv,752973.0,,,,,,
Generator_mvgd_1056_lvgd_97333_solar_roof_mounted_749977,BranchTee_mvgd_1056_lvgd_97333_18,0.01086,solar,PQ,1131085.0,solar_roof_mounted,lv,749977.0,,,,,,
Generator_mvgd_1056_lvgd_97333_solar_roof_mounted_750008,BranchTee_mvgd_1056_lvgd_97333_24,0.00612,solar,PQ,1131085.0,solar_roof_mounted,lv,750008.0,,,,,,
Generator_mvgd_1056_lvgd_97333_solar_roof_mounted_750142,BranchTee_mvgd_1056_lvgd_97333_12,0.01581,solar,PQ,1131085.0,solar_roof_mounted,lv,750142.0,,,,,,
Generator_mvgd_1056_lvgd_97333_solar_roof_mounted_750269,BranchTee_mvgd_1056_lvgd_97333_2,0.009675,solar,PQ,1131085.0,solar_roof_mounted,lv,750269.0,,,,,,
Generator_mvgd_1056_lvgd_97333_solar_roof_mounted_750276,BranchTee_mvgd_1056_lvgd_97333_14,0.00636,solar,PQ,1131085.0,solar_roof_mounted,lv,750276.0,,,,,,
Generator_mvgd_1056_lvgd_97333_solar_roof_mounted_752442,BranchTee_mvgd_1056_lvgd_97333_6,0.02312,solar,PQ,1131085.0,solar_roof_mounted,lv,752442.0,,,,,,
Generator_mvgd_1056_lvgd_97334_solar_roof_mounted_749999,BranchTee_mvgd_1056_lvgd_97334_16,0.0056,solar,PQ,1131085.0,solar_roof_mounted,lv,749999.0,,,,,,
Generator_mvgd_1056_lvgd_97334_solar_roof_mounted_750115,BranchTee_mvgd_1056_lvgd_97334_32,0.01638,solar,PQ,1131085.0,solar_roof_mounted,lv,750115.0,,,,,,
Generator_mvgd_1056_lvgd_97334_solar_roof_mounted_752230,BranchTee_mvgd_1056_lvgd_97334_14,0.01034,solar,PQ,1131085.0,solar_roof_mounted,lv,752230.0,,,,,,
Generator_mvgd_1056_lvgd_97334_solar_roof_mounted_1601206,BusBar_mvgd_1056_lvgd_97334_LV,0.06318,solar,PQ,1131085.0,solar_roof_mounted,lv,1601206.0,,,,,,
Generator_mvgd_1056_lvgd_97340_solar_roof_mounted_749915,BranchTee_mvgd_1056_lvgd_97340_14,0.0062699999999999,solar,PQ,1131085.0,solar_roof_mounted,lv,749915.0,,,,,,
Generator_mvgd_1056_lvgd_97340_solar_roof_mounted_749935,BranchTee_mvgd_1056_lvgd_97340_30,0.01075,solar,PQ,1131085.0,solar_roof_mounted,lv,749935.0,,,,,,
Generator_mvgd_1056_lvgd_97340_solar_roof_mounted_749942,BranchTee_mvgd_1056_lvgd_97340_2,0.012685,solar,PQ,1131085.0,solar_roof_mounted,lv,749942.0,,,,,,
Generator_mvgd_1056_lvgd_97340_solar_roof_mounted_749971,BranchTee_mvgd_1056_lvgd_97340_34,0.00496,solar,PQ,1131085.0,solar_roof_mounted,lv,749971.0,,,,,,
Generator_mvgd_1056_lvgd_97340_solar_roof_mounted_750141,BranchTee_mvgd_1056_lvgd_97340_46,0.0099,solar,PQ,1131085.0,solar_roof_mounted,lv,750141.0,,,,,,
Generator_mvgd_1056_lvgd_97341_solar_roof_mounted_750026,BranchTee_mvgd_1056_lvgd_97341_10,0.0084,solar,PQ,1131085.0,solar_roof_mounted,lv,750026.0,,,,,,
Generator_mvgd_1056_lvgd_97341_solar_roof_mounted_750202,BranchTee_mvgd_1056_lvgd_97341_32,0.00517,solar,PQ,1131085.0,solar_roof_mounted,lv,750202.0,,,,,,
Generator_mvgd_1056_lvgd_97341_solar_roof_mounted_750225,BranchTee_mvgd_1056_lvgd_97341_28,0.0094,solar,PQ,1131085.0,solar_roof_mounted,lv,750225.0,,,,,,
Generator_mvgd_1056_lvgd_97341_solar_roof_mounted_752166,BranchTee_mvgd_1056_lvgd_97341_22,0.02736,solar,PQ,1131085.0,solar_roof_mounted,lv,752166.0,,,,,,
Generator_mvgd_1056_lvgd_97341_solar_roof_mounted_752202,BranchTee_mvgd_1056_lvgd_97341_2,0.0099,solar,PQ,1131085.0,solar_roof_mounted,lv,752202.0,,,,,,
Generator_mvgd_1056_lvgd_97341_solar_roof_mounted_752212,BranchTee_mvgd_1056_lvgd_97341_14,0.00864,solar,PQ,1131085.0,solar_roof_mounted,lv,752212.0,,,,,,
Generator_mvgd_1056_lvgd_97341_solar_roof_mounted_752436,BranchTee_mvgd_1056_lvgd_97341_34,0.00891,solar,PQ,1131085.0,solar_roof_mounted,lv,752436.0,,,,,,
Generator_mvgd_1056_lvgd_97341_solar_roof_mounted_752955,BranchTee_mvgd_1056_lvgd_97341_24,0.0069299999999999,solar,PQ,1131085.0,solar_roof_mounted,lv,752955.0,,,,,,
Generator_mvgd_1056_lvgd_97341_solar_roof_mounted_753060,BranchTee_mvgd_1056_lvgd_97341_18,0.0081,solar,PQ,1131085.0,solar_roof_mounted,lv,753060.0,,,,,,
Generator_mvgd_1056_lvgd_440493_solar_roof_mounted_749928,BranchTee_mvgd_1056_lvgd_440493_4,0.0132,solar,PQ,1131085.0,solar_roof_mounted,lv,749928.0,,,,,,
Generator_mvgd_1056_lvgd_440493_solar_roof_mounted_749965,BranchTee_mvgd_1056_lvgd_440493_70,0.014835,solar,PQ,1131085.0,solar_roof_mounted,lv,749965.0,,,,,,
Generator_mvgd_1056_lvgd_440493_solar_roof_mounted_749985,BranchTee_mvgd_1056_lvgd_440493_40,0.00533,solar,PQ,1131085.0,solar_roof_mounted,lv,749985.0,,,,,,
Generator_mvgd_1056_lvgd_440493_solar_roof_mounted_750049,BranchTee_mvgd_1056_lvgd_440493_50,0.00154,solar,PQ,1131085.0,solar_roof_mounted,lv,750049.0,,,,,,
Generator_mvgd_1056_lvgd_440493_solar_roof_mounted_750121,Bus_mvgd_1056_lvgd_440493_gen_750121,0.1368,solar,PQ,1131085.0,solar_roof_mounted,lv,750121.0,,,,,,
Generator_mvgd_1056_lvgd_440493_solar_roof_mounted_750152,BusBar_mvgd_1056_lvgd_440493_LV,0.0396,solar,PQ,1131085.0,solar_roof_mounted,lv,750152.0,,,,,,
Generator_mvgd_1056_lvgd_440493_solar_roof_mounted_750270,BranchTee_mvgd_1056_lvgd_440493_60,0.00775,solar,PQ,1131085.0,solar_roof_mounted,lv,750270.0,,,,,,
Generator_mvgd_1056_lvgd_440493_solar_roof_mounted_750279,BranchTee_mvgd_1056_lvgd_440493_62,0.009945,solar,PQ,1131085.0,solar_roof_mounted,lv,750279.0,,,,,,
Generator_mvgd_1056_lvgd_440493_solar_roof_mounted_752163,BranchTee_mvgd_1056_lvgd_440493_2,0.01092,solar,PQ,1131085.0,solar_roof_mounted,lv,752163.0,,,,,,
Generator_mvgd_1056_lvgd_440493_solar_roof_mounted_752190,BranchTee_mvgd_1056_lvgd_440493_28,0.02181,solar,PQ,1131085.0,solar_roof_mounted,lv,752190.0,,,,,,
Generator_mvgd_1056_lvgd_440493_solar_roof_mounted_752444,BranchTee_mvgd_1056_lvgd_440493_72,0.01872,solar,PQ,1131085.0,solar_roof_mounted,lv,752444.0,,,,,,
Generator_mvgd_1056_lvgd_440493_solar_roof_mounted_752456,BranchTee_mvgd_1056_lvgd_440493_58,0.0108,solar,PQ,1131085.0,solar_roof_mounted,lv,752456.0,,,,,,
Generator_mvgd_1056_lvgd_440493_solar_roof_mounted_752470,BranchTee_mvgd_1056_lvgd_440493_76,0.00648,solar,PQ,1131085.0,solar_roof_mounted,lv,752470.0,,,,,,
Generator_mvgd_1056_lvgd_440493_solar_roof_mounted_752545,BranchTee_mvgd_1056_lvgd_440493_14,0.0038,solar,PQ,1131085.0,solar_roof_mounted,lv,752545.0,,,,,,
Generator_mvgd_1056_lvgd_440493_solar_roof_mounted_752977,BranchTee_mvgd_1056_lvgd_440493_22,0.0143,solar,PQ,1131085.0,solar_roof_mounted,lv,752977.0,,,,,,
Generator_mvgd_1056_lvgd_440493_solar_roof_mounted_753036,BranchTee_mvgd_1056_lvgd_440493_44,0.010575,solar,PQ,1131085.0,solar_roof_mounted,lv,753036.0,,,,,,
Generator_mvgd_1056_lvgd_440493_solar_roof_mounted_1589085,BranchTee_mvgd_1056_lvgd_440493_48,0.00936,solar,PQ,1131085.0,solar_roof_mounted,lv,1589085.0,,,,,,
Generator_mvgd_1056_lvgd_97717_solar_roof_mounted_750020,BranchTee_mvgd_1056_lvgd_97717_10,0.02916,solar,PQ,1131085.0,solar_roof_mounted,lv,750020.0,,,,,,
Generator_mvgd_1056_lvgd_97717_solar_roof_mounted_750099,BranchTee_mvgd_1056_lvgd_97717_14,0.003525,solar,PQ,1131085.0,solar_roof_mounted,lv,750099.0,,,,,,
Generator_mvgd_1056_lvgd_97717_solar_roof_mounted_750145,BranchTee_mvgd_1056_lvgd_97717_18,0.00882,solar,PQ,1131085.0,solar_roof_mounted,lv,750145.0,,,,,,
Generator_mvgd_1056_lvgd_97717_solar_roof_mounted_752183,BranchTee_mvgd_1056_lvgd_97717_16,0.02377,solar,PQ,1131085.0,solar_roof_mounted,lv,752183.0,,,,,,
Generator_mvgd_1056_lvgd_97717_solar_roof_mounted_752487,BranchTee_mvgd_1056_lvgd_97717_12,0.0116999999999999,solar,PQ,1131085.0,solar_roof_mounted,lv,752487.0,,,,,,
Generator_mvgd_1056_lvgd_97717_solar_roof_mounted_753002,BranchTee_mvgd_1056_lvgd_97717_18,0.01764,solar,PQ,1131085.0,solar_roof_mounted,lv,753002.0,,,,,,
Generator_mvgd_1056_lvgd_97718_solar_roof_mounted_750126,BranchTee_mvgd_1056_lvgd_97718_48,0.00836,solar,PQ,1131085.0,solar_roof_mounted,lv,750126.0,,,,,,
Generator_mvgd_1056_lvgd_97718_solar_roof_mounted_750162,BusBar_mvgd_1056_lvgd_97718_LV,0.05593,solar,PQ,1131085.0,solar_roof_mounted,lv,750162.0,,,,,,
Generator_mvgd_1056_lvgd_97718_solar_roof_mounted_750229,BusBar_mvgd_1056_lvgd_97718_LV,0.04002,solar,PQ,1131085.0,solar_roof_mounted,lv,750229.0,,,,,,
Generator_mvgd_1056_lvgd_97718_solar_roof_mounted_750255,BusBar_mvgd_1056_lvgd_97718_LV,0.07056,solar,PQ,1131085.0,solar_roof_mounted,lv,750255.0,,,,,,
Generator_mvgd_1056_lvgd_97718_solar_roof_mounted_752259,BranchTee_mvgd_1056_lvgd_97718_4,0.0195,solar,PQ,1131085.0,solar_roof_mounted,lv,752259.0,,,,,,
Generator_mvgd_1056_lvgd_97718_solar_roof_mounted_752519,BusBar_mvgd_1056_lvgd_97718_LV,0.064265,solar,PQ,1131085.0,solar_roof_mounted,lv,752519.0,,,,,,
Generator_mvgd_1056_lvgd_97718_solar_roof_mounted_753012,BusBar_mvgd_1056_lvgd_97718_LV,0.03042,solar,PQ,1131085.0,solar_roof_mounted,lv,753012.0,,,,,,
Generator_mvgd_1056_lvgd_97718_solar_roof_mounted_753015,BranchTee_mvgd_1056_lvgd_97718_72,0.02927,solar,PQ,1131085.0,solar_roof_mounted,lv,753015.0,,,,,,
Generator_mvgd_1056_lvgd_97719_solar_roof_mounted_557797,BusBar_mvgd_1056_lvgd_97719_LV,0.012,solar,PQ,1131085.0,solar_roof_mounted,lv,557797.0,,,,,,
Generator_mvgd_1056_lvgd_97719_solar_roof_mounted_749960,BusBar_mvgd_1056_lvgd_97719_LV,0.00429,solar,PQ,1131085.0,solar_roof_mounted,lv,749960.0,,,,,,
Generator_mvgd_1056_lvgd_97719_solar_roof_mounted_750277,BranchTee_mvgd_1056_lvgd_97719_2,0.0663,solar,PQ,1131085.0,solar_roof_mounted,lv,750277.0,,,,,,
Generator_mvgd_1056_lvgd_97719_solar_roof_mounted_752162,BusBar_mvgd_1056_lvgd_97719_LV,0.01122,solar,PQ,1131085.0,solar_roof_mounted,lv,752162.0,,,,,,
Generator_mvgd_1056_lvgd_97719_solar_roof_mounted_752182,BusBar_mvgd_1056_lvgd_97719_LV,0.0198,solar,PQ,1131085.0,solar_roof_mounted,lv,752182.0,,,,,,
Generator_mvgd_1056_lvgd_97719_solar_roof_mounted_752457,BusBar_mvgd_1056_lvgd_97719_LV,0.00391,solar,PQ,1131085.0,solar_roof_mounted,lv,752457.0,,,,,,
Generator_mvgd_1056_lvgd_97720_solar_roof_mounted_750079,BranchTee_mvgd_1056_lvgd_97720_68,0.0161,solar,PQ,1131085.0,solar_roof_mounted,lv,750079.0,,,,,,
Generator_mvgd_1056_lvgd_97720_solar_roof_mounted_750204,BranchTee_mvgd_1056_lvgd_97720_30,0.0270249999999999,solar,PQ,1131085.0,solar_roof_mounted,lv,750204.0,,,,,,
Generator_mvgd_1056_lvgd_97720_solar_roof_mounted_750216,BranchTee_mvgd_1056_lvgd_97720_36,0.01776,solar,PQ,1131085.0,solar_roof_mounted,lv,750216.0,,,,,,
Generator_mvgd_1056_lvgd_97720_solar_roof_mounted_750294,BranchTee_mvgd_1056_lvgd_97720_4,0.045825,solar,PQ,1131085.0,solar_roof_mounted,lv,750294.0,,,,,,
Generator_mvgd_1056_lvgd_97720_solar_roof_mounted_752142,BranchTee_mvgd_1056_lvgd_97720_74,0.00385,solar,PQ,1131085.0,solar_roof_mounted,lv,752142.0,,,,,,
Generator_mvgd_1056_lvgd_97720_solar_roof_mounted_752154,BranchTee_mvgd_1056_lvgd_97720_50,0.0209,solar,PQ,1131085.0,solar_roof_mounted,lv,752154.0,,,,,,
Generator_mvgd_1056_lvgd_97720_solar_roof_mounted_752164,BranchTee_mvgd_1056_lvgd_97720_82,0.01512,solar,PQ,1131085.0,solar_roof_mounted,lv,752164.0,,,,,,
Generator_mvgd_1056_lvgd_97720_solar_roof_mounted_752165,BranchTee_mvgd_1056_lvgd_97720_20,0.01443,solar,PQ,1131085.0,solar_roof_mounted,lv,752165.0,,,,,,
Generator_mvgd_1056_lvgd_97720_solar_roof_mounted_752203,BranchTee_mvgd_1056_lvgd_97720_42,0.02646,solar,PQ,1131085.0,solar_roof_mounted,lv,752203.0,,,,,,
Generator_mvgd_1056_lvgd_97720_solar_roof_mounted_752213,BranchTee_mvgd_1056_lvgd_97720_72,0.01116,solar,PQ,1131085.0,solar_roof_mounted,lv,752213.0,,,,,,
Generator_mvgd_1056_lvgd_97720_solar_roof_mounted_753046,BranchTee_mvgd_1056_lvgd_97720_24,0.00931,solar,PQ,1131085.0,solar_roof_mounted,lv,753046.0,,,,,,
Generator_mvgd_1056_lvgd_97720_solar_roof_mounted_753051,BranchTee_mvgd_1056_lvgd_97720_48,0.01794,solar,PQ,1131085.0,solar_roof_mounted,lv,753051.0,,,,,,
Generator_mvgd_1056_lvgd_97721_solar_roof_mounted_557794,BranchTee_mvgd_1056_lvgd_97721_4,0.0054,solar,PQ,1131085.0,solar_roof_mounted,lv,557794.0,,,,,,
Generator_mvgd_1056_lvgd_97721_solar_roof_mounted_749949,BranchTee_mvgd_1056_lvgd_97721_20,0.0099,solar,PQ,1131085.0,solar_roof_mounted,lv,749949.0,,,,,,
Generator_mvgd_1056_lvgd_97721_solar_roof_mounted_750188,BusBar_mvgd_1056_lvgd_97721_LV,0.05096,solar,PQ,1131085.0,solar_roof_mounted,lv,750188.0,,,,,,
Generator_mvgd_1056_lvgd_97721_solar_roof_mounted_750273,BranchTee_mvgd_1056_lvgd_97721_40,0.0112,solar,PQ,1131085.0,solar_roof_mounted,lv,750273.0,,,,,,
Generator_mvgd_1056_lvgd_97721_solar_roof_mounted_752441,BranchTee_mvgd_1056_lvgd_97721_50,0.00882,solar,PQ,1131085.0,solar_roof_mounted,lv,752441.0,,,,,,
Generator_mvgd_1056_lvgd_97721_solar_roof_mounted_752463,BranchTee_mvgd_1056_lvgd_97721_60,0.0138599999999999,solar,PQ,1131085.0,solar_roof_mounted,lv,752463.0,,,,,,
Generator_mvgd_1056_lvgd_97721_solar_roof_mounted_752495,BranchTee_mvgd_1056_lvgd_97721_70,0.00828,solar,PQ,1131085.0,solar_roof_mounted,lv,752495.0,,,,,,
Generator_mvgd_1056_lvgd_97721_solar_roof_mounted_752970,BranchTee_mvgd_1056_lvgd_97721_2,0.01408,solar,PQ,1131085.0,solar_roof_mounted,lv,752970.0,,,,,,
Generator_mvgd_1056_lvgd_97721_solar_roof_mounted_753052,BranchTee_mvgd_1056_lvgd_97721_28,0.0055,solar,PQ,1131085.0,solar_roof_mounted,lv,753052.0,,,,,,
Generator_mvgd_1056_lvgd_97721_solar_roof_mounted_1571066,BranchTee_mvgd_1056_lvgd_97721_48,0.01989,solar,PQ,1131085.0,solar_roof_mounted,lv,1571066.0,,,,,,
Generator_mvgd_1056_lvgd_506706_solar_roof_mounted_750275,BranchTee_mvgd_1056_lvgd_506706_6,0.00975,solar,PQ,1131085.0,solar_roof_mounted,lv,750275.0,,,,,,
Generator_mvgd_1056_lvgd_97722_solar_roof_mounted_750081,BranchTee_mvgd_1056_lvgd_97722_74,0.00544,solar,PQ,1131085.0,solar_roof_mounted,lv,750081.0,,,,,,
Generator_mvgd_1056_lvgd_97722_solar_roof_mounted_750189,BranchTee_mvgd_1056_lvgd_97722_150,0.01034,solar,PQ,1131085.0,solar_roof_mounted,lv,750189.0,,,,,,
Generator_mvgd_1056_lvgd_97722_solar_roof_mounted_750196,BranchTee_mvgd_1056_lvgd_97722_234,0.0282,solar,PQ,1131085.0,solar_roof_mounted,lv,750196.0,,,,,,
Generator_mvgd_1056_lvgd_97722_solar_roof_mounted_750201,BranchTee_mvgd_1056_lvgd_97722_130,0.00376,solar,PQ,1131085.0,solar_roof_mounted,lv,750201.0,,,,,,
Generator_mvgd_1056_lvgd_97722_solar_roof_mounted_752491,BusBar_mvgd_1056_lvgd_97722_LV,0.0326199999999999,solar,PQ,1131085.0,solar_roof_mounted,lv,752491.0,,,,,,
Generator_mvgd_1056_lvgd_97722_solar_roof_mounted_752999,BranchTee_mvgd_1056_lvgd_97722_256,0.02484,solar,PQ,1131085.0,solar_roof_mounted,lv,752999.0,,,,,,
Generator_mvgd_1056_lvgd_97722_solar_roof_mounted_753040,BranchTee_mvgd_1056_lvgd_97722_214,0.00784,solar,PQ,1131085.0,solar_roof_mounted,lv,753040.0,,,,,,
Generator_mvgd_1056_lvgd_97722_solar_roof_mounted_753045,BranchTee_mvgd_1056_lvgd_97722_60,0.00651,solar,PQ,1131085.0,solar_roof_mounted,lv,753045.0,,,,,,
Generator_mvgd_1056_lvgd_97723_solar_roof_mounted_750016,BranchTee_mvgd_1056_lvgd_97723_6,0.0425,solar,PQ,1131085.0,solar_roof_mounted,lv,750016.0,,,,,,
Generator_mvgd_1056_lvgd_97723_solar_roof_mounted_750244,BranchTee_mvgd_1056_lvgd_97723_88,0.0033599999999999,solar,PQ,1131085.0,solar_roof_mounted,lv,750244.0,,,,,,
Generator_mvgd_1056_lvgd_97723_solar_roof_mounted_750257,BranchTee_mvgd_1056_lvgd_97723_108,0.03,solar,PQ,1131085.0,solar_roof_mounted,lv,750257.0,,,,,,
Generator_mvgd_1056_lvgd_97723_solar_roof_mounted_750262,BranchTee_mvgd_1056_lvgd_97723_74,0.007215,solar,PQ,1131085.0,solar_roof_mounted,lv,750262.0,,,,,,
Generator_mvgd_1056_lvgd_97723_solar_roof_mounted_750286,BranchTee_mvgd_1056_lvgd_97723_66,0.0219299999999999,solar,PQ,1131085.0,solar_roof_mounted,lv,750286.0,,,,,,
Generator_mvgd_1056_lvgd_97723_solar_roof_mounted_750291,BranchTee_mvgd_1056_lvgd_97723_76,0.012,solar,PQ,1131085.0,solar_roof_mounted,lv,750291.0,,,,,,
Generator_mvgd_1056_lvgd_97723_solar_roof_mounted_752437,BranchTee_mvgd_1056_lvgd_97723_16,0.0194699999999999,solar,PQ,1131085.0,solar_roof_mounted,lv,752437.0,,,,,,
Generator_mvgd_1056_lvgd_97723_solar_roof_mounted_752459,BranchTee_mvgd_1056_lvgd_97723_12,0.0072,solar,PQ,1131085.0,solar_roof_mounted,lv,752459.0,,,,,,
Generator_mvgd_1056_lvgd_97723_solar_roof_mounted_752467,BranchTee_mvgd_1056_lvgd_97723_116,0.0101199999999999,solar,PQ,1131085.0,solar_roof_mounted,lv,752467.0,,,,,,
Generator_mvgd_1056_lvgd_97723_solar_roof_mounted_752980,BranchTee_mvgd_1056_lvgd_97723_92,0.0075899999999999,solar,PQ,1131085.0,solar_roof_mounted,lv,752980.0,,,,,,
Generator_mvgd_1056_lvgd_97723_solar_roof_mounted_1569480,BranchTee_mvgd_1056_lvgd_97723_40,0.00594,solar,PQ,1131085.0,solar_roof_mounted,lv,1569480.0,,,,,,
Generator_mvgd_1056_lvgd_97724_solar_roof_mounted_749937,BranchTee_mvgd_1056_lvgd_97724_10,0.00645,solar,PQ,1131085.0,solar_roof_mounted,lv,749937.0,,,,,,
Generator_mvgd_1056_lvgd_97724_solar_roof_mounted_749955,BranchTee_mvgd_1056_lvgd_97724_34,0.00567,solar,PQ,1131085.0,solar_roof_mounted,lv,749955.0,,,,,,
Generator_mvgd_1056_lvgd_97724_solar_roof_mounted_750036,BranchTee_mvgd_1056_lvgd_97724_30,0.00792,solar,PQ,1131085.0,solar_roof_mounted,lv,750036.0,,,,,,
Generator_mvgd_1056_lvgd_97724_solar_roof_mounted_750112,BranchTee_mvgd_1056_lvgd_97724_24,0.0153,solar,PQ,1131085.0,solar_roof_mounted,lv,750112.0,,,,,,
Generator_mvgd_1056_lvgd_97724_solar_roof_mounted_750116,BranchTee_mvgd_1056_lvgd_97724_20,0.01943,solar,PQ,1131085.0,solar_roof_mounted,lv,750116.0,,,,,,
Generator_mvgd_1056_lvgd_97724_solar_roof_mounted_750198,BranchTee_mvgd_1056_lvgd_97724_14,0.0108,solar,PQ,1131085.0,solar_roof_mounted,lv,750198.0,,,,,,
Generator_mvgd_1056_lvgd_97724_solar_roof_mounted_752180,BranchTee_mvgd_1056_lvgd_97724_36,0.00473,solar,PQ,1131085.0,solar_roof_mounted,lv,752180.0,,,,,,
Generator_mvgd_1056_lvgd_97724_solar_roof_mounted_752996,BranchTee_mvgd_1056_lvgd_97724_26,0.003375,solar,PQ,1131085.0,solar_roof_mounted,lv,752996.0,,,,,,
Generator_mvgd_1056_lvgd_97724_solar_roof_mounted_753055,BranchTee_mvgd_1056_lvgd_97724_18,0.01025,solar,PQ,1131085.0,solar_roof_mounted,lv,753055.0,,,,,,
Generator_mvgd_1056_lvgd_97725_solar_roof_mounted_750005,BranchTee_mvgd_1056_lvgd_97725_94,0.0084,solar,PQ,1131085.0,solar_roof_mounted,lv,750005.0,,,,,,
Generator_mvgd_1056_lvgd_97725_solar_roof_mounted_750219,BranchTee_mvgd_1056_lvgd_97725_2,0.09984,solar,PQ,1131085.0,solar_roof_mounted,lv,750219.0,,,,,,
Generator_mvgd_1056_lvgd_97725_solar_roof_mounted_750220,BranchTee_mvgd_1056_lvgd_97725_172,0.00833,solar,PQ,1131085.0,solar_roof_mounted,lv,750220.0,,,,,,
Generator_mvgd_1056_lvgd_97725_solar_roof_mounted_750260,BranchTee_mvgd_1056_lvgd_97725_30,0.0064,solar,PQ,1131085.0,solar_roof_mounted,lv,750260.0,,,,,,
Generator_mvgd_1056_lvgd_97725_solar_roof_mounted_752156,BranchTee_mvgd_1056_lvgd_97725_112,0.01088,solar,PQ,1131085.0,solar_roof_mounted,lv,752156.0,,,,,,
Generator_mvgd_1056_lvgd_97725_solar_roof_mounted_752234,BranchTee_mvgd_1056_lvgd_97725_40,0.0032,solar,PQ,1131085.0,solar_roof_mounted,lv,752234.0,,,,,,
Generator_mvgd_1056_lvgd_97725_solar_roof_mounted_752261,BranchTee_mvgd_1056_lvgd_97725_20,0.02175,solar,PQ,1131085.0,solar_roof_mounted,lv,752261.0,,,,,,
Generator_mvgd_1056_lvgd_97726_solar_roof_mounted_749909,BranchTee_mvgd_1056_lvgd_97726_76,0.002,solar,PQ,1131085.0,solar_roof_mounted,lv,749909.0,,,,,,
Generator_mvgd_1056_lvgd_97726_solar_roof_mounted_749911,BranchTee_mvgd_1056_lvgd_97726_60,0.0098,solar,PQ,1131085.0,solar_roof_mounted,lv,749911.0,,,,,,
Generator_mvgd_1056_lvgd_97726_solar_roof_mounted_749914,BranchTee_mvgd_1056_lvgd_97726_2,0.007905,solar,PQ,1131085.0,solar_roof_mounted,lv,749914.0,,,,,,
Generator_mvgd_1056_lvgd_97726_solar_roof_mounted_749924,BranchTee_mvgd_1056_lvgd_97726_14,0.0105,solar,PQ,1131085.0,solar_roof_mounted,lv,749924.0,,,,,,
Generator_mvgd_1056_lvgd_97726_solar_roof_mounted_749954,BranchTee_mvgd_1056_lvgd_97726_38,0.00858,solar,PQ,1131085.0,solar_roof_mounted,lv,749954.0,,,,,,
Generator_mvgd_1056_lvgd_97726_solar_roof_mounted_750003,BranchTee_mvgd_1056_lvgd_97726_4,0.0063,solar,PQ,1131085.0,solar_roof_mounted,lv,750003.0,,,,,,
Generator_mvgd_1056_lvgd_97726_solar_roof_mounted_750021,BranchTee_mvgd_1056_lvgd_97726_128,0.00977,solar,PQ,1131085.0,solar_roof_mounted,lv,750021.0,,,,,,
Generator_mvgd_1056_lvgd_97726_solar_roof_mounted_750256,BranchTee_mvgd_1056_lvgd_97726_72,0.0099499999999999,solar,PQ,1131085.0,solar_roof_mounted,lv,750256.0,,,,,,
Generator_mvgd_1056_lvgd_97726_solar_roof_mounted_752217,BranchTee_mvgd_1056_lvgd_97726_132,0.0114749999999999,solar,PQ,1131085.0,solar_roof_mounted,lv,752217.0,,,,,,
Generator_mvgd_1056_lvgd_97726_solar_roof_mounted_752260,BranchTee_mvgd_1056_lvgd_97726_106,0.0055,solar,PQ,1131085.0,solar_roof_mounted,lv,752260.0,,,,,,
Generator_mvgd_1056_lvgd_97726_solar_roof_mounted_752466,BranchTee_mvgd_1056_lvgd_97726_68,0.0297,solar,PQ,1131085.0,solar_roof_mounted,lv,752466.0,,,,,,
...
Generator_LVGrid_97905_solar_1752155,BranchTee_mvgd_1056_lvgd_97905_20,0.016,solar,PQ,1131085.0,solar,lv,,1056.0,68687.0,POINT(10.8352198382122 50.0773228607057),,POINT(10.7354205584601 50.1474641373183),0.016
Generator_LVGrid_97718_solar_1752156,BranchTee_mvgd_1056_lvgd_97718_58,0.016,solar,PQ,1131085.0,solar,lv,,1056.0,68513.0,POINT(10.7850674873397 50.0857717961504),,POINT(10.7354205584601 50.1474641373183),0.016
Generator_LVGrid_97727_solar_1752157,BranchTee_mvgd_1056_lvgd_97727_14,0.016,solar,PQ,1131085.0,solar,lv,,1056.0,68514.0,POINT(10.7971300202726 50.0969276908285),,POINT(10.7354205584601 50.1474641373183),0.016
Generator_LVGrid_102659_solar_1752158,BranchTee_mvgd_1056_lvgd_102659_38,0.016,solar,PQ,1131085.0,solar,lv,,1056.0,71068.0,POINT(10.8410504939488 50.1307805423528),,POINT(10.7354205584601 50.1474641373183),0.016
Generator_LVGrid_97341_solar_1752159,BranchTee_mvgd_1056_lvgd_97341_2,0.016,solar,PQ,1131085.0,solar,lv,,1056.0,68340.0,POINT(10.7626691759582 50.1268355862168),,POINT(10.7354205584601 50.1474641373183),0.016
Generator_LVGrid_97734_solar_1752160,BranchTee_mvgd_1056_lvgd_97734_66,0.016,solar,PQ,1131085.0,solar,lv,,1056.0,68514.0,POINT(10.8111267434443 50.0981777437562),,POINT(10.7354205584601 50.1474641373183),0.016
Generator_LVGrid_102785_solar_1752161,BranchTee_mvgd_1056_lvgd_102785_6,0.016,solar,PQ,1131085.0,solar,lv,,1056.0,71158.0,POINT(10.7320520692717 50.1364772049293),,POINT(10.7354205584601 50.1474641373183),0.016
Generator_LVGrid_98278_solar_1752162,BranchTee_mvgd_1056_lvgd_98278_122,0.016,solar,PQ,1131084.0,solar,lv,,1056.0,68944.0,POINT(10.7945254278386 50.0663740989586),,POINT(10.7354205584601 50.1474641373183),0.016
Generator_LVGrid_99021_solar_1752163,BranchTee_mvgd_1056_lvgd_99021_22,0.016,solar,PQ,1131085.0,solar,lv,,1056.0,69446.0,POINT(10.7790226497633 50.1006494791906),,POINT(10.7354205584601 50.1474641373183),0.016
Generator_LVGrid_440892_solar_1752164,BranchTee_mvgd_1056_lvgd_440892_18,0.016,solar,PQ,1131085.0,solar,lv,,1056.0,69538.0,POINT(10.8558841409714 50.1000985425273),,POINT(10.7354205584601 50.1474641373183),0.016
Generator_LVGrid_102785_solar_1752165,BranchTee_mvgd_1056_lvgd_102785_72,0.016,solar,PQ,1131085.0,solar,lv,,1056.0,71158.0,POINT(10.7313458993576 50.13603215854),,POINT(10.7354205584601 50.1474641373183),0.016
Generator_LVGrid_98952_solar_1752166,BranchTee_mvgd_1056_lvgd_98952_60,0.016,solar,PQ,1131085.0,solar,lv,,1056.0,69383.0,POINT(10.7552153701415 50.097662555803),,POINT(10.7354205584601 50.1474641373183),0.016
Generator_LVGrid_98547_solar_1752167,BranchTee_mvgd_1056_lvgd_98547_3,0.016,solar,PQ,1131084.0,solar,lv,,1056.0,69121.0,POINT(10.8266445908474 50.0661456675759),,POINT(10.7354205584601 50.1474641373183),0.016
Generator_LVGrid_102250_solar_1752168,BranchTee_mvgd_1056_lvgd_102250_40,0.016,solar,PQ,1131085.0,solar,lv,,1056.0,70848.0,POINT(10.7441010720864 50.1467394812123),,POINT(10.7354205584601 50.1474641373183),0.016
Generator_LVGrid_102708_solar_1752169,BranchTee_mvgd_1056_lvgd_102708_6,0.016,solar,PQ,1131085.0,solar,lv,,1056.0,71098.0,POINT(10.8103091752589 50.1323517273672),,POINT(10.7354205584601 50.1474641373183),0.016
Generator_LVGrid_97876_solar_1752170,BranchTee_mvgd_1056_lvgd_97876_10,0.016,solar,PQ,1130085.0,solar,lv,,1056.0,68663.0,POINT(10.6920446821704 50.0782819391712),,POINT(10.7354205584601 50.1474641373183),0.016
Generator_LVGrid_97829_solar_1752171,BranchTee_mvgd_1056_lvgd_97829_26,0.016,solar,PQ,1131085.0,solar,lv,,1056.0,68620.0,POINT(10.7737380945169 50.0764079846699),,POINT(10.7354205584601 50.1474641373183),0.016
Generator_LVGrid_97724_solar_1752172,BranchTee_mvgd_1056_lvgd_97724_40,0.016,solar,PQ,1131085.0,solar,lv,,1056.0,68514.0,POINT(10.7908864571808 50.0996686575206),,POINT(10.7354205584601 50.1474641373183),0.016
Generator_LVGrid_97768_solar_1752173,BranchTee_mvgd_1056_lvgd_97768_32,0.016,solar,PQ,1131085.0,solar,lv,,1056.0,68550.0,POINT(10.8044219034324 50.0734980715932),,POINT(10.7354205584601 50.1474641373183),0.016
Generator_LVGrid_97728_solar_1752174,BranchTee_mvgd_1056_lvgd_97728_108,0.016,solar,PQ,1131085.0,solar,lv,,1056.0,68514.0,POINT(10.7978812898749 50.1000695161635),,POINT(10.7354205584601 50.1474641373183),0.016
Generator_LVGrid_98280_solar_1752175,BranchTee_mvgd_1056_lvgd_98280_42,0.016,solar,PQ,1131084.0,solar,lv,,1056.0,68944.0,POINT(10.8000511973598 50.0627387449307),,POINT(10.7354205584601 50.1474641373183),0.016
Generator_LVGrid_98278_solar_1752176,BranchTee_mvgd_1056_lvgd_98278_90,0.016,solar,PQ,1131084.0,solar,lv,,1056.0,68944.0,POINT(10.7952161948242 50.065919694522),,POINT(10.7354205584601 50.1474641373183),0.016
Generator_LVGrid_102178_solar_1752177,BranchTee_mvgd_1056_lvgd_102178_68,0.016,solar,PQ,1131085.0,solar,lv,,1056.0,70817.0,POINT(10.8601067358539 50.140529280126),,POINT(10.7354205584601 50.1474641373183),0.016
Generator_LVGrid_109037_solar_1752178,BranchTee_mvgd_1056_lvgd_109037_82,0.016,solar,PQ,1131084.0,solar,lv,,1056.0,73813.0,POINT(10.8120918023641 50.0316318412963),,POINT(10.7354205584601 50.1474641373183),0.016
Generator_LVGrid_102177_solar_1752179,BranchTee_mvgd_1056_lvgd_102177_140,0.016,solar,PQ,1131085.0,solar,lv,,1056.0,70817.0,POINT(10.8545362963106 50.1419198670007),,POINT(10.7354205584601 50.1474641373183),0.016
Generator_LVGrid_102177_solar_1752180,BranchTee_mvgd_1056_lvgd_102177_42,0.016,solar,PQ,1131085.0,solar,lv,,1056.0,70817.0,POINT(10.8545524080031 50.1428189066444),,POINT(10.7354205584601 50.1474641373183),0.016
Generator_LVGrid_506706_solar_1752181,BranchTee_mvgd_1056_lvgd_506706_6,0.016,solar,PQ,1131085.0,solar,lv,,1056.0,68514.0,POINT(10.7881508862332 50.1032842505445),,POINT(10.7354205584601 50.1474641373183),0.016
Generator_LVGrid_97731_solar_1752182,BranchTee_mvgd_1056_lvgd_97731_90,0.016,solar,PQ,1131085.0,solar,lv,,1056.0,68514.0,POINT(10.8055370655064 50.0982173645152),,POINT(10.7354205584601 50.1474641373183),0.016
Generator_LVGrid_102249_solar_1752183,BranchTee_mvgd_1056_lvgd_102249_66,0.016,solar,PQ,1131085.0,solar,lv,,1056.0,70848.0,POINT(10.7384847704317 50.1454272375285),,POINT(10.7354205584601 50.1474641373183),0.016
Generator_LVGrid_99308_solar_1752184,BranchTee_mvgd_1056_lvgd_99308_8,0.016,solar,PQ,1131085.0,solar,lv,,1056.0,69674.0,POINT(10.7812660085653 50.1096257522453),,POINT(10.7354205584601 50.1474641373183),0.016
Generator_LVGrid_440438_solar_1752185,BranchTee_mvgd_1056_lvgd_440438_20,0.016,solar,PQ,1131084.0,solar,lv,,1056.0,68952.0,POINT(10.8119357149609 50.0635538723663),,POINT(10.7354205584601 50.1474641373183),0.016
Generator_LVGrid_97718_solar_1752186,BranchTee_mvgd_1056_lvgd_97718_48,0.016,solar,PQ,1131085.0,solar,lv,,1056.0,68513.0,POINT(10.7871260416096 50.0835096828342),,POINT(10.7354205584601 50.1474641373183),0.016
Generator_LVGrid_102250_solar_1752187,BranchTee_mvgd_1056_lvgd_102250_42,0.016,solar,PQ,1131085.0,solar,lv,,1056.0,70848.0,POINT(10.7427232276449 50.1480971753893),,POINT(10.7354205584601 50.1474641373183),0.016
Generator_LVGrid_98277_solar_1752188,BranchTee_mvgd_1056_lvgd_98277_40,0.016,solar,PQ,1131084.0,solar,lv,,1056.0,68944.0,POINT(10.7965377643437 50.0614145923454),,POINT(10.7354205584601 50.1474641373183),0.016
Generator_LVGrid_97719_solar_1752189,BusBar_mvgd_1056_lvgd_97719_LV,0.016,solar,PQ,1131085.0,solar,lv,,1056.0,68513.0,POINT(10.7836778017895 50.0862309402987),,POINT(10.7354205584601 50.1474641373183),0.016
Generator_LVGrid_97724_solar_1752190,BranchTee_mvgd_1056_lvgd_97724_14,0.016,solar,PQ,1131085.0,solar,lv,,1056.0,68514.0,POINT(10.7936813871833 50.0996492403411),,POINT(10.7354205584601 50.1474641373183),0.016
Generator_LVGrid_98280_solar_1752191,BranchTee_mvgd_1056_lvgd_98280_42,0.016,solar,PQ,1131084.0,solar,lv,,1056.0,68944.0,POINT(10.7972734221384 50.0636573860124),,POINT(10.7354205584601 50.1474641373183),0.016
Generator_LVGrid_103093_solar_1752192,BranchTee_mvgd_1056_lvgd_103093_54,0.016,solar,PQ,1131085.0,solar,lv,,1056.0,71434.0,POINT(10.7478238433723 50.1611014774777),,POINT(10.7354205584601 50.1474641373183),0.016
Generator_LVGrid_97340_solar_1752193,BranchTee_mvgd_1056_lvgd_97340_44,0.016,solar,PQ,1131085.0,solar,lv,,1056.0,68340.0,POINT(10.7654512817242 50.1259178011467),,POINT(10.7354205584601 50.1474641373183),0.016
Generator_LVGrid_102177_solar_1803471,BranchTee_mvgd_1056_lvgd_102177_154,0.017,solar,PQ,1131085.0,solar,lv,,1056.0,70817.0,POINT(10.855991474649 50.1450560225296),,POINT(10.7279198006149 50.0960724387193),0.017
Generator_LVGrid_97828_solar_1803472,BranchTee_mvgd_1056_lvgd_97828_24,0.017,solar,PQ,1131085.0,solar,lv,,1056.0,68620.0,POINT(10.7702026488437 50.0737344201026),,POINT(10.7279198006149 50.0960724387193),0.017
Generator_LVGrid_97334_solar_1803473,BranchTee_mvgd_1056_lvgd_97334_2,0.017,solar,PQ,1131085.0,solar,lv,,1056.0,68328.0,POINT(10.7437224663186 50.1224648956236),,POINT(10.7279198006149 50.0960724387193),0.017
Generator_LVGrid_97720_solar_1803474,BranchTee_mvgd_1056_lvgd_97720_24,0.017,solar,PQ,1131085.0,solar,lv,,1056.0,68513.0,POINT(10.7858843485782 50.0929595017431),,POINT(10.7279198006149 50.0960724387193),0.017
Generator_LVGrid_97725_solar_1803475,BranchTee_mvgd_1056_lvgd_97725_90,0.017,solar,PQ,1131085.0,solar,lv,,1056.0,68514.0,POINT(10.7956652263221 50.0928916725),,POINT(10.7279198006149 50.0960724387193),0.017
Generator_LVGrid_102248_solar_1803476,BranchTee_mvgd_1056_lvgd_102248_42,0.017,solar,PQ,1131085.0,solar,lv,,1056.0,70848.0,POINT(10.7343367879749 50.1486010110925),,POINT(10.7279198006149 50.0960724387193),0.017
Generator_LVGrid_440502_solar_1803477,BranchTee_mvgd_1056_lvgd_440502_4,0.017,solar,PQ,1131085.0,solar,lv,,1056.0,69609.0,POINT(10.8154418257727 50.1053403028961),,POINT(10.7279198006149 50.0960724387193),0.017
Generator_LVGrid_109034_solar_1803478,BranchTee_mvgd_1056_lvgd_109034_38,0.017,solar,PQ,1131084.0,solar,lv,,1056.0,73813.0,POINT(10.8050614832628 50.0285346009153),,POINT(10.7279198006149 50.0960724387193),0.017
Generator_LVGrid_102243_solar_1803479,BranchTee_mvgd_1056_lvgd_102243_16,0.017,solar,PQ,1131085.0,solar,lv,,1056.0,70836.0,POINT(10.7692078133542 50.1420772902633),,POINT(10.7279198006149 50.0960724387193),0.017
Generator_LVGrid_97876_solar_1803480,BranchTee_mvgd_1056_lvgd_97876_14,0.017,solar,PQ,1130085.0,solar,lv,,1056.0,68663.0,POINT(10.6941269044062 50.0773701194691),,POINT(10.7279198006149 50.0960724387193),0.017
Generator_LVGrid_97733_solar_1803481,BranchTee_mvgd_1056_lvgd_97733_136,0.017,solar,PQ,1131085.0,solar,lv,,1056.0,68514.0,POINT(10.8110503930437 50.0936824485072),,POINT(10.7279198006149 50.0960724387193),0.017
Generator_LVGrid_97735_solar_1803482,BranchTee_mvgd_1056_lvgd_97735_136,0.017,solar,PQ,1131085.0,solar,lv,,1056.0,68514.0,POINT(10.8083547352466 50.0995461764085),,POINT(10.7279198006149 50.0960724387193),0.017
Generator_LVGrid_97729_solar_1803483,BranchTee_mvgd_1056_lvgd_97729_74,0.017,solar,PQ,1131085.0,solar,lv,,1056.0,68514.0,POINT(10.8061295345554 50.0919190065826),,POINT(10.7279198006149 50.0960724387193),0.017
Generator_LVGrid_102319_solar_1803484,BranchTee_mvgd_1056_lvgd_102319_46,0.017,solar,PQ,1130085.0,solar,lv,,1056.0,70910.0,POINT(10.7084301782975 50.1469664554189),,POINT(10.7279198006149 50.0960724387193),0.017
Generator_LVGrid_97768_solar_1803485,BranchTee_mvgd_1056_lvgd_97768_18,0.017,solar,PQ,1131085.0,solar,lv,,1056.0,68550.0,POINT(10.8050672420482 50.0703464085403),,POINT(10.7279198006149 50.0960724387193),0.017
Generator_LVGrid_102176_solar_1803486,BranchTee_mvgd_1056_lvgd_102176_24,0.017,solar,PQ,1131085.0,solar,lv,,1056.0,70817.0,POINT(10.8532099938825 50.1459760087409),,POINT(10.7279198006149 50.0960724387193),0.017
Generator_LVGrid_102177_solar_1803487,BranchTee_mvgd_1056_lvgd_102177_52,0.017,solar,PQ,1131085.0,solar,lv,,1056.0,70817.0,POINT(10.8559188508214 50.1410103459728),,POINT(10.7279198006149 50.0960724387193),0.017
Generator_LVGrid_97290_solar_1803488,BranchTee_mvgd_1056_lvgd_97290_38,0.017,solar,PQ,1130085.0,solar,lv,,1056.0,68268.0,POINT(10.7157528103668 50.122194219788),,POINT(10.7279198006149 50.0960724387193),0.017
Generator_LVGrid_97717_solar_1803489,BranchTee_mvgd_1056_lvgd_97717_12,0.017,solar,PQ,1131085.0,solar,lv,,1056.0,68513.0,POINT(10.7803026087769 50.0934474168951),,POINT(10.7279198006149 50.0960724387193),0.017
Generator_LVGrid_97735_solar_1803490,BranchTee_mvgd_1056_lvgd_97735_46,0.017,solar,PQ,1131085.0,solar,lv,,1056.0,68514.0,POINT(10.8077168401928 50.1031473595018),,POINT(10.7279198006149 50.0960724387193),0.017
Generator_LVGrid_109035_solar_1803491,BranchTee_mvgd_1056_lvgd_109035_108,0.017,solar,PQ,1131084.0,solar,lv,,1056.0,73813.0,POINT(10.8057894526193 50.0303278232148),,POINT(10.7279198006149 50.0960724387193),0.017
Generator_LVGrid_97727_solar_1803492,BranchTee_mvgd_1056_lvgd_97727_52,0.017,solar,PQ,1131085.0,solar,lv,,1056.0,68514.0,POINT(10.7971375242434 50.0973772212675),,POINT(10.7279198006149 50.0960724387193),0.017
Generator_LVGrid_97905_solar_1803493,BranchTee_mvgd_1056_lvgd_97905_8,0.017,solar,PQ,1131085.0,solar,lv,,1056.0,68687.0,POINT(10.8345135850801 50.0768784453452),,POINT(10.7279198006149 50.0960724387193),0.017
Generator_LVGrid_98952_solar_1803494,BranchTee_mvgd_1056_lvgd_98952_108,0.017,solar,PQ,1131085.0,solar,lv,,1056.0,69383.0,POINT(10.7587517576498 50.1003365649118),,POINT(10.7279198006149 50.0960724387193),0.017
Generator_LVGrid_97255_solar_1803495,BranchTee_mvgd_1056_lvgd_97255_76,0.017,solar,PQ,1130085.0,solar,lv,,1056.0,68232.0,POINT(10.6751557504156 50.1188450992305),,POINT(10.7279198006149 50.0960724387193),0.017
Generator_LVGrid_102249_solar_1803496,BranchTee_mvgd_1056_lvgd_102249_6,0.017,solar,PQ,1131085.0,solar,lv,,1056.0,70848.0,POINT(10.7385404752108 50.1490234620542),,POINT(10.7279198006149 50.0960724387193),0.017
Generator_LVGrid_109034_solar_1803497,BranchTee_mvgd_1056_lvgd_109034_32,0.017,solar,PQ,1131084.0,solar,lv,,1056.0,73813.0,POINT(10.8057818831643 50.0298782843301),,POINT(10.7279198006149 50.0960724387193),0.017
Generator_LVGrid_99144_solar_1803498,BranchTee_mvgd_1056_lvgd_99144_18,0.017,solar,PQ,1131085.0,solar,lv,,1056.0,69524.0,POINT(10.7336175708647 50.1018497534518),,POINT(10.7279198006149 50.0960724387193),0.017
Generator_LVGrid_97725_solar_1803499,BranchTee_mvgd_1056_lvgd_97725_54,0.017,solar,PQ,1131085.0,solar,lv,,1056.0,68514.0,POINT(10.7942530079987 50.0920023511695),,POINT(10.7279198006149 50.0960724387193),0.017
Generator_LVGrid_98548_solar_1803500,BranchTee_mvgd_1056_lvgd_98548_1,0.017,solar,PQ,1131085.0,solar,lv,,1056.0,69121.0,POINT(10.8273739548595 50.0679387297651),,POINT(10.7279198006149 50.0960724387193),0.017
Generator_LVGrid_97735_solar_1803501,BranchTee_mvgd_1056_lvgd_97735_168,0.017,solar,PQ,1131085.0,solar,lv,,1056.0,68514.0,POINT(10.8097521939247 50.0995362623351),,POINT(10.7279198006149 50.0960724387193),0.017
Generator_LVGrid_97729_solar_1803502,BranchTee_mvgd_1056_lvgd_97729_172,0.017,solar,PQ,1131085.0,solar,lv,,1056.0,68514.0,POINT(10.8019453716936 50.0923980943039),,POINT(10.7279198006149 50.0960724387193),0.017
Generator_LVGrid_99309_solar_1803503,BranchTee_mvgd_1056_lvgd_99309_46,0.017,solar,PQ,1131085.0,solar,lv,,1056.0,69674.0,POINT(10.7868792700212 50.1109359080706),,POINT(10.7279198006149 50.0960724387193),0.017
Generator_LVGrid_441037_solar_1803504,BranchTee_mvgd_1056_lvgd_441037_2,0.017,solar,PQ,1131085.0,solar,lv,,1056.0,71070.0,POINT(10.8697906891477 50.1346113234849),,POINT(10.7279198006149 50.0960724387193),0.017
Generator_LVGrid_97290_solar_1803505,BranchTee_mvgd_1056_lvgd_97290_32,0.017,solar,PQ,1130085.0,solar,lv,,1056.0,68268.0,POINT(10.7171104120232 50.1194882412966),,POINT(10.7279198006149 50.0960724387193),0.017
Generator_LVGrid_98279_solar_1803506,BranchTee_mvgd_1056_lvgd_98279_52,0.017,solar,PQ,1131084.0,solar,lv,,1056.0,68944.0,POINT(10.8041949750203 50.0600120516309),,POINT(10.7279198006149 50.0960724387193),0.017
Generator_LVGrid_440526_solar_1803507,BranchTee_mvgd_1056_lvgd_440526_2,0.017,solar,PQ,1131085.0,solar,lv,,1056.0,69379.0,POINT(10.8166472232323 50.0940920874687),,POINT(10.7279198006149 50.0960724387193),0.017
Generator_LVGrid_97718_solar_1803508,BranchTee_mvgd_1056_lvgd_97718_36,0.017,solar,PQ,1131085.0,solar,lv,,1056.0,68513.0,POINT(10.7829718967935 50.0857862065048),,POINT(10.7279198006149 50.0960724387193),0.017
Generator_LVGrid_97724_solar_1803509,BranchTee_mvgd_1056_lvgd_97724_32,0.017,solar,PQ,1131085.0,solar,lv,,1056.0,68514.0,POINT(10.7916224537088 50.1019114615066),,POINT(10.7279198006149 50.0960724387193),0.017
Generator_LVGrid_487647_solar_1803510,Bus_Generator_1803510,0.017,solar,PQ,1131085.0,solar,lv,,1056.0,69674.0,POINT(10.7785291451609 50.1132411051828),,POINT(10.7279198006149 50.0960724387193),0.017
Generator_LVGrid_103068_solar_1803511,BranchTee_mvgd_1056_lvgd_103068_52,0.017,solar,PQ,1130085.0,solar,lv,,1056.0,71375.0,POINT(10.7310670083225 50.163457862481),,POINT(10.7279198006149 50.0960724387193),0.017
Generator_LVGrid_103068_solar_1803512,BranchTee_mvgd_1056_lvgd_103068_84,0.017,solar,PQ,1130085.0,solar,lv,,1056.0,71375.0,POINT(10.7303053338794 50.1594165996546),,POINT(10.7279198006149 50.0960724387193),0.017
Generator_LVGrid_440438_solar_1803513,BranchTee_mvgd_1056_lvgd_440438_70,0.017,solar,PQ,1131084.0,solar,lv,,1056.0,68952.0,POINT(10.8132709395366 50.0599476437082),,POINT(10.7279198006149 50.0960724387193),0.017
Generator_LVGrid_97239_solar_1803514,BranchTee_mvgd_1056_lvgd_97239_24,0.017,solar,PQ,1131085.0,solar,lv,,1056.0,68212.0,POINT(10.8575642056821 50.1158213926815),,POINT(10.7279198006149 50.0960724387193),0.017
Generator_LVGrid_109036_solar_1803515,BranchTee_mvgd_1056_lvgd_109036_44,0.017,solar,PQ,1131084.0,solar,lv,,1056.0,73813.0,POINT(10.8078522528856 50.028514840823),,POINT(10.7279198006149 50.0960724387193),0.017
Generator_LVGrid_97730_solar_1803516,BranchTee_mvgd_1056_lvgd_97730_12,0.017,solar,PQ,1131085.0,solar,lv,,1056.0,68514.0,POINT(10.8054688227799 50.0941715952049),,POINT(10.7279198006149 50.0960724387193),0.017
Generator_LVGrid_97732_solar_1803517,BranchTee_mvgd_1056_lvgd_97732_168,0.017,solar,PQ,1131085.0,solar,lv,,1056.0,68514.0,POINT(10.8055749843808 50.1004650119917),,POINT(10.7279198006149 50.0960724387193),0.017
Generator_LVGrid_98712_solar_1803518,BranchTee_mvgd_1056_lvgd_98712_98,0.017,solar,PQ,1130085.0,solar,lv,,1056.0,69228.0,POINT(10.6887015758872 50.088642505793),,POINT(10.7279198006149 50.0960724387193),0.017
Generator_LVGrid_97735_solar_1803519,BranchTee_mvgd_1056_lvgd_97735_58,0.017,solar,PQ,1131085.0,solar,lv,,1056.0,68514.0,POINT(10.8069724704297 50.1004551319515),,POINT(10.7279198006149 50.0960724387193),0.017
Generator_LVGrid_102576_solar_1803520,BranchTee_mvgd_1056_lvgd_102576_14,0.017,solar,PQ,1131085.0,solar,lv,,1056.0,71031.0,POINT(10.8535794771934 50.1275404321667),,POINT(10.7279198006149 50.0960724387193),0.017
Generator_LVGrid_97733_solar_1803521,BranchTee_mvgd_1056_lvgd_97733_76,0.017,solar,PQ,1131085.0,solar,lv,,1056.0,68514.0,POINT(10.8068433408902 50.092813126112),,POINT(10.7279198006149 50.0960724387193),0.017
Generator_LVGrid_98549_solar_1803522,Bus_Generator_1803522,0.017,solar,PQ,1131085.0,solar,lv,,1056.0,69121.0,POINT(10.8315791888549 50.0688073033758),,POINT(10.7279198006149 50.0960724387193),0.017
Generator_LVGrid_97340_solar_1803523,BranchTee_mvgd_1056_lvgd_97340_12,0.017,solar,PQ,1131085.0,solar,lv,,1056.0,68340.0,POINT(10.7654440695607 50.125468272158),,POINT(10.7279198006149 50.0960724387193),0.017
Generator_LVGrid_97733_solar_1803524,BranchTee_mvgd_1056_lvgd_97733_134,0.017,solar,PQ,1131085.0,solar,lv,,1056.0,68514.0,POINT(10.8068585299185 50.0937121865403),,POINT(10.7279198006149 50.0960724387193),0.017
Generator_LVGrid_109034_solar_1803525,BranchTee_mvgd_1056_lvgd_109034_20,0.017,solar,PQ,1131084.0,solar,lv,,1056.0,73813.0,POINT(10.8015805478738 50.0290087442656),,POINT(10.7279198006149 50.0960724387193),0.017
Generator_LVGrid_504532_solar_1803526,BranchTee_mvgd_1056_lvgd_504532_8,0.017,solar,PQ,1131085.0,solar,lv,,1056.0,69383.0,POINT(10.7531121608142 50.097226884321),,POINT(10.7279198006149 50.0960724387193),0.017
Generator_LVGrid_97851_solar_1803527,BranchTee_mvgd_1056_lvgd_97851_62,0.017,solar,PQ,1131085.0,solar,lv,,1056.0,68630.0,POINT(10.7555371602333 50.0738325677965),,POINT(10.7279198006149 50.0960724387193),0.017
Generator_LVGrid_102579_solar_1803528,BranchTee_mvgd_1056_lvgd_102579_44,0.017,solar,PQ,1131085.0,solar,lv,,1056.0,71031.0,POINT(10.8577662043248 50.1270594516944),,POINT(10.7279198006149 50.0960724387193),0.017
Generator_LVGrid_99309_solar_1803529,BranchTee_mvgd_1056_lvgd_99309_34,0.017,solar,PQ,1131085.0,solar,lv,,1056.0,69674.0,POINT(10.7882547951334 50.1095776687413),,POINT(10.7279198006149 50.0960724387193),0.017
Generator_LVGrid_97253_solar_1803530,BranchTee_mvgd_1056_lvgd_97253_6,0.017,solar,PQ,1131085.0,solar,lv,,1056.0,68230.0,POINT(10.806562306902 50.1175421430405),,POINT(10.7279198006149 50.0960724387193),0.017
Generator_LVGrid_99308_solar_1803531,BranchTee_mvgd_1056_lvgd_99308_20,0.017,solar,PQ,1131085.0,solar,lv,,1056.0,69674.0,POINT(10.7819722519545 50.1100704930467),,POINT(10.7279198006149 50.0960724387193),0.017
Generator_LVGrid_97734_solar_1803532,BranchTee_mvgd_1056_lvgd_97734_74,0.017,solar,PQ,1131085.0,solar,lv,,1056.0,68514.0,POINT(10.8117948839662 50.0963746547479),,POINT(10.7279198006149 50.0960724387193),0.017
Generator_LVGrid_102178_solar_1803533,BranchTee_mvgd_1056_lvgd_102178_36,0.017,solar,PQ,1131085.0,solar,lv,,1056.0,70817.0,POINT(10.8601472773041 50.1427768774107),,POINT(10.7279198006149 50.0960724387193),0.017
Generator_LVGrid_102248_solar_1803534,BranchTee_mvgd_1056_lvgd_102248_50,0.017,solar,PQ,1131085.0,solar,lv,,1056.0,70848.0,POINT(10.7357079487682 50.1467938897999),,POINT(10.7279198006149 50.0960724387193),0.017
Generator_LVGrid_98952_solar_1803535,BranchTee_mvgd_1056_lvgd_98952_70,0.017,solar,PQ,1131085.0,solar,lv,,1056.0,69383.0,POINT(10.7594219043158 50.0985337821001),,POINT(10.7279198006149 50.0960724387193),0.017
Generator_LVGrid_97722_solar_1803536,BranchTee_mvgd_1056_lvgd_97722_192,0.017,solar,PQ,1131085.0,solar,lv,,1056.0,68514.0,POINT(10.793621616346 50.0960529954509),,POINT(10.7279198006149 50.0960724387193),0.017
Generator_LVGrid_102249_solar_1803537,BranchTee_mvgd_1056_lvgd_102249_20,0.017,solar,PQ,1131085.0,solar,lv,,1056.0,70848.0,POINT(10.7378271010018 50.1481289297659),,POINT(10.7279198006149 50.0960724387193),0.017
Generator_LVGrid_97101_solar_1803538,BranchTee_mvgd_1056_lvgd_97101_18,0.017,solar,PQ,1130085.0,solar,lv,,1056.0,68076.0,POINT(10.7085952336834 50.1109995070676),,POINT(10.7279198006149 50.0960724387193),0.017
Generator_LVGrid_98951_solar_1803539,BranchTee_mvgd_1056_lvgd_98951_12,0.017,solar,PQ,1131085.0,solar,lv,,1056.0,69383.0,POINT(10.7544740492587 50.0949699784242),,POINT(10.7279198006149 50.0960724387193),0.017
Generator_LVGrid_102577_solar_1803540,BranchTee_mvgd_1056_lvgd_102577_44,0.017,solar,PQ,1131085.0,solar,lv,,1056.0,71031.0,POINT(10.8536357828252 50.1306870838397),,POINT(10.7279198006149 50.0960724387193),0.017
Generator_LVGrid_99309_solar_1803541,BranchTee_mvgd_1056_lvgd_99309_14,0.017,solar,PQ,1131085.0,solar,lv,,1056.0,69674.0,POINT(10.7861729679629 50.1104911978336),,POINT(10.7279198006149 50.0960724387193),0.017
Generator_LVGrid_99159_solar_1803542,BranchTee_mvgd_1056_lvgd_99159_28,0.017,solar,PQ,1130085.0,solar,lv,,1056.0,69552.0,POINT(10.6896143453829 50.1034730473492),,POINT(10.7279198006149 50.0960724387193),0.017
Generator_LVGrid_97255_solar_1803543,BranchTee_mvgd_1056_lvgd_97255_34,0.017,solar,PQ,1130085.0,solar,lv,,1056.0,68232.0,POINT(10.6730523419043 50.1184079543916),,POINT(10.7279198006149 50.0960724387193),0.017
Generator_LVGrid_97255_solar_1803544,BranchTee_mvgd_1056_lvgd_97255_62,0.017,solar,PQ,1130085.0,solar,lv,,1056.0,68232.0,POINT(10.6793434844573 50.118370664698),,POINT(10.7279198006149 50.0960724387193),0.017
Generator_LVGrid_98550_solar_1803545,BranchTee_mvgd_1056_lvgd_98550_3,0.017,solar,PQ,1131085.0,solar,lv,,1056.0,69121.0,POINT(10.8337289135019 50.0719387188257),,POINT(10.7279198006149 50.0960724387193),0.017
Generator_LVGrid_102579_solar_1803546,BranchTee_mvgd_1056_lvgd_102579_58,0.017,solar,PQ,1131085.0,solar,lv,,1056.0,71031.0,POINT(10.8598716896142 50.1274931859823),,POINT(10.7279198006149 50.0960724387193),0.017
Generator_LVGrid_97101_solar_1803547,BranchTee_mvgd_1056_lvgd_97101_34,0.017,solar,PQ,1130085.0,solar,lv,,1056.0,68076.0,POINT(10.7071907628357 50.1105586467998),,POINT(10.7279198006149 50.0960724387193),0.017
Generator_LVGrid_102177_solar_1803548,BranchTee_mvgd_1056_lvgd_102177_44,0.017,solar,PQ,1131085.0,solar,lv,,1056.0,70817.0,POINT(10.8580006718477 50.1400955525623),,POINT(10.7279198006149 50.0960724387193),0.017
Generator_LVGrid_102178_solar_1803549,BranchTee_mvgd_1056_lvgd_102178_76,0.017,solar,PQ,1131085.0,solar,lv,,1056.0,70817.0,POINT(10.8615541152592 50.1432158464101),,POINT(10.7279198006149 50.0960724387193),0.017
Generator_LVGrid_98279_solar_1803550,BranchTee_mvgd_1056_lvgd_98279_32,0.017,solar,PQ,1131084.0,solar,lv,,1056.0,68944.0,POINT(10.8035119334284 50.0609160459793),,POINT(10.7279198006149 50.0960724387193),0.017
Generator_LVGrid_109037_solar_1803551,BranchTee_mvgd_1056_lvgd_109037_18,0.017,solar,PQ,1131084.0,solar,lv,,1056.0,73813.0,POINT(10.8099909808114 50.0311972074507),,POINT(10.7279198006149 50.0960724387193),0.017
Generator_LVGrid_440438_solar_1803552,BranchTee_mvgd_1056_lvgd_440438_98,0.017,solar,PQ,1131084.0,solar,lv,,1056.0,68952.0,POINT(10.8126262762058 50.063099362278),,POINT(10.7279198006149 50.0960724387193),0.017
Generator_LVGrid_97720_solar_1803553,BranchTee_mvgd_1056_lvgd_97720_46,0.017,solar,PQ,1131085.0,solar,lv,,1056.0,68513.0,POINT(10.7844796943898 50.0925195911561),,POINT(10.7279198006149 50.0960724387193),0.017
Generator_LVGrid_98550_solar_1803554,BranchTee_mvgd_1056_lvgd_98550_3,0.017,solar,PQ,1131085.0,solar,lv,,1056.0,69121.0,POINT(10.8337132293901 50.071039656745),,POINT(10.7279198006149 50.0960724387193),0.017
Generator_LVGrid_98547_solar_1803555,BranchTee_mvgd_1056_lvgd_98547_3,0.017,solar,PQ,1131084.0,solar,lv,,1056.0,69121.0,POINT(10.8293985481675 50.0638777149071),,POINT(10.7279198006149 50.0960724387193),0.017
Generator_LVGrid_102177_solar_1803556,BranchTee_mvgd_1056_lvgd_102177_154,0.017,solar,PQ,1131085.0,solar,lv,,1056.0,70817.0,POINT(10.8552920826736 50.1450612657548),,POINT(10.7279198006149 50.0960724387193),0.017
Generator_LVGrid_97828_solar_1803557,BranchTee_mvgd_1056_lvgd_97828_22,0.017,solar,PQ,1131085.0,solar,lv,,1056.0,68620.0,POINT(10.7688059380301 50.0737438487894),,POINT(10.7279198006149 50.0960724387193),0.017
Generator_LVGrid_102319_solar_1803558,BranchTee_mvgd_1056_lvgd_102319_62,0.017,solar,PQ,1130085.0,solar,lv,,1056.0,70910.0,POINT(10.7077240731753 50.1465212641899),,POINT(10.7279198006149 50.0960724387193),0.017
Generator_LVGrid_98280_solar_1803559,BranchTee_mvgd_1056_lvgd_98280_86,0.017,solar,PQ,1131084.0,solar,lv,,1056.0,68944.0,POINT(10.8000361511256 50.0618396750625),,POINT(10.7279198006149 50.0960724387193),0.017
Generator_LVGrid_98952_solar_1803560,BranchTee_mvgd_1056_lvgd_98952_16,0.017,solar,PQ,1131085.0,solar,lv,,1056.0,69383.0,POINT(10.7587160428622 50.0980888997426),,POINT(10.7279198006149 50.0960724387193),0.017
Generator_LVGrid_97734_solar_1803561,BranchTee_mvgd_1056_lvgd_97734_66,0.017,solar,PQ,1131085.0,solar,lv,,1056.0,68514.0,POINT(10.8076103873635 50.0968539500983),,POINT(10.7279198006149 50.0960724387193),0.017
Generator_LVGrid_97976_solar_1803562,BranchTee_mvgd_1056_lvgd_97976_46,0.017,solar,PQ,1131085.0,solar,lv,,1056.0,68769.0,POINT(10.8562685094656 50.082561762461),,POINT(10.7279198006149 50.0960724387193),0.017
Generator_LVGrid_97722_solar_1803563,BranchTee_mvgd_1056_lvgd_97722_106,0.017,solar,PQ,1131085.0,solar,lv,,1056.0,68514.0,POINT(10.7928856184698 50.0938102004393),,POINT(10.7279198006149 50.0960724387193),0.017
Generator_LVGrid_98952_solar_1803564,BranchTee_mvgd_1056_lvgd_98952_112,0.017,solar,PQ,1131085.0,solar,lv,,1056.0,69383.0,POINT(10.755914076444 50.097657926509),,POINT(10.7279198006149 50.0960724387193),0.017
Generator_LVGrid_504532_solar_1803565,BranchTee_mvgd_1056_lvgd_504532_14,0.017,solar,PQ,1131085.0,solar,lv,,1056.0,69383.0,POINT(10.7538179571639 50.0976718015487),,POINT(10.7279198006149 50.0960724387193),0.017
Generator_LVGrid_97724_solar_1803566,BranchTee_mvgd_1056_lvgd_97724_42,0.017,solar,PQ,1131085.0,solar,lv,,1056.0,68514.0,POINT(10.7944025560556 50.1009929660113),,POINT(10.7279198006149 50.0960724387193),0.017
Generator_LVGrid_97722_solar_1803567,BranchTee_mvgd_1056_lvgd_97722_90,0.017,solar,PQ,1131085.0,solar,lv,,1056.0,68514.0,POINT(10.7949890415446 50.094245138528),,POINT(10.7279198006149 50.0960724387193),0.017
Generator_LVGrid_440493_solar_1803568,BranchTee_mvgd_1056_lvgd_440493_56,0.017,solar,PQ,1131085.0,solar,lv,,1056.0,68367.0,POINT(10.8193139583461 50.1273420495545),,POINT(10.7279198006149 50.0960724387193),0.017
...